    11
 Optimized with DFT-PBE0/def2-TZVP
 Pt                    0.00000000     0.00000000    -0.24307151
 Cl                   -1.68651619     0.00000000     1.28782485
 Cl                    1.68651619     0.00000000     1.28782485
 N                    -1.57528925     0.00000000    -1.59952668
 H                    -1.62657797     0.82525004    -2.18714190
 H                    -1.62657797    -0.82525004    -2.18714190
 N                     1.57528925     0.00000000    -1.59952668
 H                     1.62657797    -0.82525004    -2.18714190
 H                     1.62657797     0.82525004    -2.18714190
 H                    -2.38149642     0.00000000    -0.96836443
 H                     2.38149642     0.00000000    -0.96836443
