11
cis-[Pt(NH3)2Cl2]
 Pt                 0.00000000   -0.00000000   -0.19134710
 Cl                 0.00000000    1.61220407    1.42085566
 Cl                 0.00000000   -1.61220407    1.42085566
 N                  0.00000000    1.40714181   -1.59849021
 H                  0.81649658    1.30951047   -2.16752575
 H                 -0.81649658    1.30951047   -2.16752575
 N                  0.00000000   -1.40714181   -1.59849021
 H                 -0.81649658   -1.30951047   -2.16752575
 H                  0.81649658   -1.30951047   -2.16752575
 H                  0.00000000    2.30951093   -1.16752621
 H                  0.00000000   -2.30951093   -1.16752621

